* NGSPICE file created from spm.ext - technology: sky130A

* Black-box entry subcircuit for sky130_fd_sc_hd__decap_4 abstract view
.subckt sky130_fd_sc_hd__decap_4 VGND VNB VPB VPWR
.ends

* Black-box entry subcircuit for sky130_fd_sc_hd__nand2_1 abstract view
.subckt sky130_fd_sc_hd__nand2_1 A B VGND VNB VPB VPWR Y
.ends

* Black-box entry subcircuit for sky130_fd_sc_hd__dfrtp_1 abstract view
.subckt sky130_fd_sc_hd__dfrtp_1 CLK D RESET_B VGND VNB VPB VPWR Q
.ends

* Black-box entry subcircuit for sky130_fd_sc_hd__inv_2 abstract view
.subckt sky130_fd_sc_hd__inv_2 A VGND VNB VPB VPWR Y
.ends

* Black-box entry subcircuit for sky130_fd_sc_hd__xnor2_1 abstract view
.subckt sky130_fd_sc_hd__xnor2_1 A B VGND VNB VPB VPWR Y
.ends

* Black-box entry subcircuit for sky130_fd_sc_hd__a31o_1 abstract view
.subckt sky130_fd_sc_hd__a31o_1 A1 A2 A3 B1 VGND VNB VPB VPWR X
.ends

* Black-box entry subcircuit for sky130_fd_sc_hd__decap_12 abstract view
.subckt sky130_fd_sc_hd__decap_12 VGND VNB VPB VPWR
.ends

* Black-box entry subcircuit for sky130_fd_sc_hd__decap_8 abstract view
.subckt sky130_fd_sc_hd__decap_8 VGND VNB VPB VPWR
.ends

* Black-box entry subcircuit for sky130_fd_sc_hd__fill_1 abstract view
.subckt sky130_fd_sc_hd__fill_1 VGND VNB VPB VPWR
.ends

* Black-box entry subcircuit for sky130_fd_sc_hd__decap_6 abstract view
.subckt sky130_fd_sc_hd__decap_6 VGND VNB VPB VPWR
.ends

* Black-box entry subcircuit for sky130_fd_sc_hd__clkbuf_2 abstract view
.subckt sky130_fd_sc_hd__clkbuf_2 A VGND VNB VPB VPWR X
.ends

* Black-box entry subcircuit for sky130_fd_sc_hd__fill_2 abstract view
.subckt sky130_fd_sc_hd__fill_2 VGND VNB VPB VPWR
.ends

* Black-box entry subcircuit for sky130_fd_sc_hd__decap_3 abstract view
.subckt sky130_fd_sc_hd__decap_3 VGND VNB VPB VPWR
.ends

* Black-box entry subcircuit for sky130_fd_sc_hd__tapvpwrvgnd_1 abstract view
.subckt sky130_fd_sc_hd__tapvpwrvgnd_1 VGND VPWR
.ends

* Black-box entry subcircuit for sky130_fd_sc_hd__and2_1 abstract view
.subckt sky130_fd_sc_hd__and2_1 A B VGND VNB VPB VPWR X
.ends

* Black-box entry subcircuit for sky130_fd_sc_hd__xor2_1 abstract view
.subckt sky130_fd_sc_hd__xor2_1 A B VGND VNB VPB VPWR X
.ends

* Black-box entry subcircuit for sky130_fd_sc_hd__buf_2 abstract view
.subckt sky130_fd_sc_hd__buf_2 A VGND VNB VPB VPWR X
.ends

* Black-box entry subcircuit for sky130_fd_sc_hd__clkbuf_16 abstract view
.subckt sky130_fd_sc_hd__clkbuf_16 A VGND VNB VPB VPWR X
.ends

* Black-box entry subcircuit for sky130_fd_sc_hd__clkbuf_4 abstract view
.subckt sky130_fd_sc_hd__clkbuf_4 A VGND VNB VPB VPWR X
.ends

* Black-box entry subcircuit for sky130_fd_sc_hd__clkbuf_1 abstract view
.subckt sky130_fd_sc_hd__clkbuf_1 A VGND VNB VPB VPWR X
.ends

* Black-box entry subcircuit for sky130_fd_sc_hd__nand3_1 abstract view
.subckt sky130_fd_sc_hd__nand3_1 A B C VGND VNB VPB VPWR Y
.ends

* Black-box entry subcircuit for sky130_fd_sc_hd__a21o_1 abstract view
.subckt sky130_fd_sc_hd__a21o_1 A1 A2 B1 VGND VNB VPB VPWR X
.ends

* Black-box entry subcircuit for sky130_fd_sc_hd__dlymetal6s2s_1 abstract view
.subckt sky130_fd_sc_hd__dlymetal6s2s_1 A VGND VNB VPB VPWR X
.ends

.subckt spm VGND VPWR clk p rst x[0] x[10] x[11] x[12] x[13] x[14] x[15] x[16] x[17]
+ x[18] x[19] x[1] x[20] x[21] x[22] x[23] x[24] x[25] x[26] x[27] x[28] x[29] x[2]
+ x[30] x[31] x[3] x[4] x[5] x[6] x[7] x[8] x[9] y
XFILLER_26_85 VGND VGND VPWR VPWR sky130_fd_sc_hd__decap_4
X_363_ _384_/A _363_/B VGND VGND VPWR VPWR _364_/A sky130_fd_sc_hd__nand2_1
X_501_ _505_/CLK _501_/D _430_/Y VGND VGND VPWR VPWR _501_/Q sky130_fd_sc_hd__dfrtp_1
X_432_ _433_/A VGND VGND VPWR VPWR _432_/Y sky130_fd_sc_hd__inv_2
X_294_ _294_/A _294_/B VGND VGND VPWR VPWR _500_/D sky130_fd_sc_hd__xnor2_1
X_346_ _338_/X _347_/B _348_/B _345_/X VGND VGND VPWR VPWR _519_/D sky130_fd_sc_hd__a31o_1
X_415_ _415_/A VGND VGND VPWR VPWR _415_/Y sky130_fd_sc_hd__inv_2
XFILLER_12_98 VGND VGND VPWR VPWR sky130_fd_sc_hd__decap_12
XFILLER_12_43 VGND VGND VPWR VPWR sky130_fd_sc_hd__decap_4
XFILLER_6_129 VGND VGND VPWR VPWR sky130_fd_sc_hd__decap_8
XFILLER_10_136 VGND VGND VPWR VPWR sky130_fd_sc_hd__decap_4
X_277_ _277_/A _277_/B VGND VGND VPWR VPWR _494_/D sky130_fd_sc_hd__xnor2_1
XFILLER_5_195 VGND VGND VPWR VPWR sky130_fd_sc_hd__fill_1
X_329_ _311_/X _330_/B _331_/B _328_/X VGND VGND VPWR VPWR _513_/D sky130_fd_sc_hd__a31o_1
XFILLER_2_187 VGND VGND VPWR VPWR sky130_fd_sc_hd__decap_8
XFILLER_2_176 VGND VGND VPWR VPWR sky130_fd_sc_hd__decap_4
XFILLER_0_57 VGND VGND VPWR VPWR sky130_fd_sc_hd__decap_12
XFILLER_9_11 VGND VGND VPWR VPWR sky130_fd_sc_hd__fill_1
XFILLER_9_77 VGND VGND VPWR VPWR sky130_fd_sc_hd__decap_4
XFILLER_9_88 VGND VGND VPWR VPWR sky130_fd_sc_hd__decap_6
XFILLER_9_99 VGND VGND VPWR VPWR sky130_fd_sc_hd__decap_4
Xclkbuf_3_1_0_clk clkbuf_3_1_0_clk/A VGND VGND VPWR VPWR _505_/CLK sky130_fd_sc_hd__clkbuf_2
XFILLER_18_97 VGND VGND VPWR VPWR sky130_fd_sc_hd__fill_2
XFILLER_29_52 VGND VGND VPWR VPWR sky130_fd_sc_hd__decap_4
XFILLER_20_98 VGND VGND VPWR VPWR sky130_fd_sc_hd__decap_8
XFILLER_20_32 VGND VGND VPWR VPWR sky130_fd_sc_hd__decap_12
XFILLER_13_3 VGND VGND VPWR VPWR sky130_fd_sc_hd__decap_3
XFILLER_6_56 VGND VGND VPWR VPWR sky130_fd_sc_hd__decap_3
XFILLER_25_186 VGND VGND VPWR VPWR sky130_fd_sc_hd__decap_8
XFILLER_25_164 VGND VGND VPWR VPWR sky130_fd_sc_hd__decap_4
XFILLER_25_142 VGND VGND VPWR VPWR sky130_fd_sc_hd__decap_4
XFILLER_31_167 VGND VGND VPWR VPWR sky130_fd_sc_hd__fill_1
XFILLER_31_64 VGND VGND VPWR VPWR sky130_fd_sc_hd__decap_4
XTAP_167 VGND VPWR sky130_fd_sc_hd__tapvpwrvgnd_1
XTAP_156 VGND VPWR sky130_fd_sc_hd__tapvpwrvgnd_1
XTAP_145 VGND VPWR sky130_fd_sc_hd__tapvpwrvgnd_1
XFILLER_22_123 VGND VGND VPWR VPWR sky130_fd_sc_hd__decap_8
XTAP_134 VGND VPWR sky130_fd_sc_hd__tapvpwrvgnd_1
XTAP_123 VGND VPWR sky130_fd_sc_hd__tapvpwrvgnd_1
XTAP_112 VGND VPWR sky130_fd_sc_hd__tapvpwrvgnd_1
XTAP_101 VGND VPWR sky130_fd_sc_hd__tapvpwrvgnd_1
XFILLER_26_97 VGND VGND VPWR VPWR sky130_fd_sc_hd__decap_4
X_362_ _362_/A VGND VGND VPWR VPWR _384_/A sky130_fd_sc_hd__clkbuf_2
XFILLER_13_167 VGND VGND VPWR VPWR sky130_fd_sc_hd__fill_1
X_293_ _303_/A _293_/B VGND VGND VPWR VPWR _294_/A sky130_fd_sc_hd__nand2_1
XFILLER_3_13 VGND VGND VPWR VPWR sky130_fd_sc_hd__decap_4
XFILLER_3_24 VGND VGND VPWR VPWR sky130_fd_sc_hd__decap_8
XFILLER_3_57 VGND VGND VPWR VPWR sky130_fd_sc_hd__decap_8
XFILLER_3_79 VGND VGND VPWR VPWR sky130_fd_sc_hd__decap_12
X_431_ _433_/A VGND VGND VPWR VPWR _431_/Y sky130_fd_sc_hd__inv_2
X_500_ _505_/CLK _500_/D _429_/Y VGND VGND VPWR VPWR _500_/Q sky130_fd_sc_hd__dfrtp_1
X_345_ _519_/Q _522_/Q VGND VGND VPWR VPWR _345_/X sky130_fd_sc_hd__and2_1
X_276_ _276_/A _276_/B VGND VGND VPWR VPWR _277_/A sky130_fd_sc_hd__nand2_1
X_414_ _415_/A VGND VGND VPWR VPWR _414_/Y sky130_fd_sc_hd__inv_2
X_328_ _513_/Q _516_/Q VGND VGND VPWR VPWR _328_/X sky130_fd_sc_hd__and2_1
X_259_ _487_/Q _490_/Q VGND VGND VPWR VPWR _259_/X sky130_fd_sc_hd__and2_1
XFILLER_2_155 VGND VGND VPWR VPWR sky130_fd_sc_hd__fill_1
XFILLER_0_69 VGND VGND VPWR VPWR sky130_fd_sc_hd__decap_12
XFILLER_20_44 VGND VGND VPWR VPWR sky130_fd_sc_hd__decap_4
XFILLER_20_11 VGND VGND VPWR VPWR sky130_fd_sc_hd__fill_1
XFILLER_19_195 VGND VGND VPWR VPWR sky130_fd_sc_hd__fill_1
XFILLER_19_184 VGND VGND VPWR VPWR sky130_fd_sc_hd__decap_4
Xclkbuf_3_0_0_clk clkbuf_3_1_0_clk/A VGND VGND VPWR VPWR _497_/CLK sky130_fd_sc_hd__clkbuf_2
XFILLER_6_24 VGND VGND VPWR VPWR sky130_fd_sc_hd__decap_4
XFILLER_6_35 VGND VGND VPWR VPWR sky130_fd_sc_hd__decap_8
XFILLER_6_79 VGND VGND VPWR VPWR sky130_fd_sc_hd__decap_4
XFILLER_25_176 VGND VGND VPWR VPWR sky130_fd_sc_hd__decap_6
XFILLER_15_22 VGND VGND VPWR VPWR sky130_fd_sc_hd__decap_12
XFILLER_31_135 VGND VGND VPWR VPWR sky130_fd_sc_hd__decap_4
XFILLER_31_113 VGND VGND VPWR VPWR sky130_fd_sc_hd__fill_2
XFILLER_16_187 VGND VGND VPWR VPWR sky130_fd_sc_hd__decap_8
XTAP_168 VGND VPWR sky130_fd_sc_hd__tapvpwrvgnd_1
XTAP_157 VGND VPWR sky130_fd_sc_hd__tapvpwrvgnd_1
XTAP_146 VGND VPWR sky130_fd_sc_hd__tapvpwrvgnd_1
XTAP_135 VGND VPWR sky130_fd_sc_hd__tapvpwrvgnd_1
XTAP_124 VGND VPWR sky130_fd_sc_hd__tapvpwrvgnd_1
XTAP_113 VGND VPWR sky130_fd_sc_hd__tapvpwrvgnd_1
XTAP_102 VGND VPWR sky130_fd_sc_hd__tapvpwrvgnd_1
XFILLER_26_65 VGND VGND VPWR VPWR sky130_fd_sc_hd__decap_12
X_361_ _338_/X _363_/B _364_/B _360_/X VGND VGND VPWR VPWR _525_/D sky130_fd_sc_hd__a31o_1
XFILLER_13_113 VGND VGND VPWR VPWR sky130_fd_sc_hd__decap_8
X_430_ _433_/A VGND VGND VPWR VPWR _430_/Y sky130_fd_sc_hd__inv_2
XFILLER_7_9 VGND VGND VPWR VPWR sky130_fd_sc_hd__decap_12
XFILLER_9_106 VGND VGND VPWR VPWR sky130_fd_sc_hd__decap_6
X_292_ _284_/X _293_/B _294_/B _291_/X VGND VGND VPWR VPWR _499_/D sky130_fd_sc_hd__a31o_1
XFILLER_12_190 VGND VGND VPWR VPWR sky130_fd_sc_hd__decap_6
XFILLER_8_183 VGND VGND VPWR VPWR sky130_fd_sc_hd__decap_12
XFILLER_6_109 VGND VGND VPWR VPWR sky130_fd_sc_hd__decap_12
XFILLER_10_105 VGND VGND VPWR VPWR sky130_fd_sc_hd__decap_4
X_344_ _519_/Q _522_/Q VGND VGND VPWR VPWR _348_/B sky130_fd_sc_hd__xor2_1
X_275_ _257_/X _276_/B _277_/B _274_/X VGND VGND VPWR VPWR _493_/D sky130_fd_sc_hd__a31o_1
X_413_ _415_/A VGND VGND VPWR VPWR _413_/Y sky130_fd_sc_hd__inv_2
XFILLER_5_153 VGND VGND VPWR VPWR sky130_fd_sc_hd__decap_12
XFILLER_23_55 VGND VGND VPWR VPWR sky130_fd_sc_hd__fill_1
XFILLER_3_3 VGND VGND VPWR VPWR sky130_fd_sc_hd__decap_4
XFILLER_0_15 VGND VGND VPWR VPWR sky130_fd_sc_hd__decap_12
X_327_ _513_/Q _516_/Q VGND VGND VPWR VPWR _331_/B sky130_fd_sc_hd__xor2_1
X_258_ _487_/Q _490_/Q VGND VGND VPWR VPWR _262_/B sky130_fd_sc_hd__xor2_1
XFILLER_18_77 VGND VGND VPWR VPWR sky130_fd_sc_hd__decap_6
XFILLER_22_9 VGND VGND VPWR VPWR sky130_fd_sc_hd__decap_4
XFILLER_20_56 VGND VGND VPWR VPWR sky130_fd_sc_hd__decap_4
XFILLER_1_91 VGND VGND VPWR VPWR sky130_fd_sc_hd__fill_2
XFILLER_29_87 VGND VGND VPWR VPWR sky130_fd_sc_hd__decap_4
XFILLER_28_174 VGND VGND VPWR VPWR sky130_fd_sc_hd__decap_8
XFILLER_28_163 VGND VGND VPWR VPWR sky130_fd_sc_hd__decap_4
XFILLER_28_152 VGND VGND VPWR VPWR sky130_fd_sc_hd__fill_1
XFILLER_28_141 VGND VGND VPWR VPWR sky130_fd_sc_hd__fill_2
XFILLER_19_152 VGND VGND VPWR VPWR sky130_fd_sc_hd__decap_4
XFILLER_31_99 VGND VGND VPWR VPWR sky130_fd_sc_hd__decap_4
XFILLER_31_33 VGND VGND VPWR VPWR sky130_fd_sc_hd__fill_1
XFILLER_25_111 VGND VGND VPWR VPWR sky130_fd_sc_hd__fill_1
XFILLER_15_34 VGND VGND VPWR VPWR sky130_fd_sc_hd__decap_3
XTAP_169 VGND VPWR sky130_fd_sc_hd__tapvpwrvgnd_1
XFILLER_31_169 VGND VGND VPWR VPWR sky130_fd_sc_hd__decap_3
XTAP_158 VGND VPWR sky130_fd_sc_hd__tapvpwrvgnd_1
XTAP_147 VGND VPWR sky130_fd_sc_hd__tapvpwrvgnd_1
XFILLER_22_136 VGND VGND VPWR VPWR sky130_fd_sc_hd__decap_4
XTAP_136 VGND VPWR sky130_fd_sc_hd__tapvpwrvgnd_1
XTAP_125 VGND VPWR sky130_fd_sc_hd__tapvpwrvgnd_1
XTAP_114 VGND VPWR sky130_fd_sc_hd__tapvpwrvgnd_1
XTAP_103 VGND VPWR sky130_fd_sc_hd__tapvpwrvgnd_1
XFILLER_30_191 VGND VGND VPWR VPWR sky130_fd_sc_hd__decap_4
XFILLER_26_77 VGND VGND VPWR VPWR sky130_fd_sc_hd__decap_6
XFILLER_26_55 VGND VGND VPWR VPWR sky130_fd_sc_hd__decap_6
X_360_ _525_/Q _528_/Q VGND VGND VPWR VPWR _360_/X sky130_fd_sc_hd__and2_1
XFILLER_13_169 VGND VGND VPWR VPWR sky130_fd_sc_hd__fill_2
X_291_ _499_/Q _502_/Q VGND VGND VPWR VPWR _291_/X sky130_fd_sc_hd__and2_1
X_489_ _512_/CLK _489_/D _415_/Y VGND VGND VPWR VPWR _489_/Q sky130_fd_sc_hd__dfrtp_1
XFILLER_8_195 VGND VGND VPWR VPWR sky130_fd_sc_hd__fill_1
XFILLER_12_35 VGND VGND VPWR VPWR sky130_fd_sc_hd__decap_4
X_343_ _343_/A _343_/B VGND VGND VPWR VPWR _518_/D sky130_fd_sc_hd__xnor2_1
X_274_ _493_/Q _496_/Q VGND VGND VPWR VPWR _274_/X sky130_fd_sc_hd__and2_1
X_412_ _415_/A VGND VGND VPWR VPWR _412_/Y sky130_fd_sc_hd__inv_2
XFILLER_5_165 VGND VGND VPWR VPWR sky130_fd_sc_hd__decap_3
XFILLER_4_80 VGND VGND VPWR VPWR sky130_fd_sc_hd__decap_4
XFILLER_0_27 VGND VGND VPWR VPWR sky130_fd_sc_hd__fill_1
XFILLER_29_3 VGND VGND VPWR VPWR sky130_fd_sc_hd__decap_12
X_326_ _326_/A _326_/B VGND VGND VPWR VPWR _512_/D sky130_fd_sc_hd__xnor2_1
X_257_ _394_/A VGND VGND VPWR VPWR _257_/X sky130_fd_sc_hd__clkbuf_2
X_309_ _330_/A _309_/B VGND VGND VPWR VPWR _310_/A sky130_fd_sc_hd__nand2_1
XFILLER_6_48 VGND VGND VPWR VPWR sky130_fd_sc_hd__decap_8
XFILLER_25_156 VGND VGND VPWR VPWR sky130_fd_sc_hd__decap_4
XFILLER_15_57 VGND VGND VPWR VPWR sky130_fd_sc_hd__decap_4
XFILLER_31_159 VGND VGND VPWR VPWR sky130_fd_sc_hd__decap_8
XTAP_159 VGND VPWR sky130_fd_sc_hd__tapvpwrvgnd_1
XTAP_148 VGND VPWR sky130_fd_sc_hd__tapvpwrvgnd_1
XTAP_137 VGND VPWR sky130_fd_sc_hd__tapvpwrvgnd_1
XTAP_126 VGND VPWR sky130_fd_sc_hd__tapvpwrvgnd_1
XFILLER_16_178 VGND VGND VPWR VPWR sky130_fd_sc_hd__decap_4
XFILLER_16_134 VGND VGND VPWR VPWR sky130_fd_sc_hd__decap_6
XTAP_115 VGND VPWR sky130_fd_sc_hd__tapvpwrvgnd_1
XTAP_104 VGND VPWR sky130_fd_sc_hd__tapvpwrvgnd_1
XFILLER_11_3 VGND VGND VPWR VPWR sky130_fd_sc_hd__decap_4
XFILLER_26_89 VGND VGND VPWR VPWR sky130_fd_sc_hd__fill_1
XFILLER_26_23 VGND VGND VPWR VPWR sky130_fd_sc_hd__decap_4
XFILLER_22_115 VGND VGND VPWR VPWR sky130_fd_sc_hd__decap_4
X_488_ _493_/CLK _488_/D _414_/Y VGND VGND VPWR VPWR _488_/Q sky130_fd_sc_hd__dfrtp_1
X_290_ _499_/Q _502_/Q VGND VGND VPWR VPWR _294_/B sky130_fd_sc_hd__xor2_1
XFILLER_8_130 VGND VGND VPWR VPWR sky130_fd_sc_hd__decap_8
XFILLER_8_141 VGND VGND VPWR VPWR sky130_fd_sc_hd__decap_8
XFILLER_8_152 VGND VGND VPWR VPWR sky130_fd_sc_hd__decap_6
XFILLER_10_129 VGND VGND VPWR VPWR sky130_fd_sc_hd__decap_4
X_273_ _493_/Q _496_/Q VGND VGND VPWR VPWR _277_/B sky130_fd_sc_hd__xor2_1
X_342_ _357_/A _342_/B VGND VGND VPWR VPWR _343_/A sky130_fd_sc_hd__nand2_1
X_411_ _415_/A VGND VGND VPWR VPWR _411_/Y sky130_fd_sc_hd__inv_2
XFILLER_5_111 VGND VGND VPWR VPWR sky130_fd_sc_hd__fill_1
XFILLER_23_68 VGND VGND VPWR VPWR sky130_fd_sc_hd__decap_4
XFILLER_23_57 VGND VGND VPWR VPWR sky130_fd_sc_hd__decap_6
XFILLER_23_35 VGND VGND VPWR VPWR sky130_fd_sc_hd__fill_1
X_325_ _330_/A _325_/B VGND VGND VPWR VPWR _326_/A sky130_fd_sc_hd__nand2_1
X_256_ _256_/A _256_/B VGND VGND VPWR VPWR _486_/D sky130_fd_sc_hd__xnor2_1
XFILLER_9_26 VGND VGND VPWR VPWR sky130_fd_sc_hd__decap_12
X_308_ _362_/A VGND VGND VPWR VPWR _330_/A sky130_fd_sc_hd__clkbuf_2
X_239_ _239_/A _239_/B VGND VGND VPWR VPWR _480_/D sky130_fd_sc_hd__xnor2_1
XFILLER_19_121 VGND VGND VPWR VPWR sky130_fd_sc_hd__fill_1
XFILLER_19_110 VGND VGND VPWR VPWR sky130_fd_sc_hd__fill_2
XFILLER_31_13 VGND VGND VPWR VPWR sky130_fd_sc_hd__decap_4
XFILLER_25_135 VGND VGND VPWR VPWR sky130_fd_sc_hd__decap_4
XFILLER_25_113 VGND VGND VPWR VPWR sky130_fd_sc_hd__decap_12
Xoutput35 _476_/Q VGND VGND VPWR VPWR p sky130_fd_sc_hd__buf_2
XTAP_149 VGND VPWR sky130_fd_sc_hd__tapvpwrvgnd_1
XFILLER_24_190 VGND VGND VPWR VPWR sky130_fd_sc_hd__decap_6
XTAP_138 VGND VPWR sky130_fd_sc_hd__tapvpwrvgnd_1
XTAP_127 VGND VPWR sky130_fd_sc_hd__tapvpwrvgnd_1
XFILLER_16_146 VGND VGND VPWR VPWR sky130_fd_sc_hd__decap_12
XTAP_116 VGND VPWR sky130_fd_sc_hd__tapvpwrvgnd_1
XTAP_105 VGND VPWR sky130_fd_sc_hd__tapvpwrvgnd_1
X_487_ _493_/CLK _487_/D _413_/Y VGND VGND VPWR VPWR _487_/Q sky130_fd_sc_hd__dfrtp_1
X_272_ _272_/A _272_/B VGND VGND VPWR VPWR _492_/D sky130_fd_sc_hd__xnor2_1
X_341_ _338_/X _342_/B _343_/B _340_/X VGND VGND VPWR VPWR _517_/D sky130_fd_sc_hd__a31o_1
X_410_ _428_/A VGND VGND VPWR VPWR _415_/A sky130_fd_sc_hd__buf_2
XFILLER_12_15 VGND VGND VPWR VPWR sky130_fd_sc_hd__decap_12
XFILLER_5_134 VGND VGND VPWR VPWR sky130_fd_sc_hd__decap_12
XFILLER_5_189 VGND VGND VPWR VPWR sky130_fd_sc_hd__decap_6
XFILLER_23_47 VGND VGND VPWR VPWR sky130_fd_sc_hd__decap_8
XFILLER_4_93 VGND VGND VPWR VPWR sky130_fd_sc_hd__decap_8
X_324_ _311_/X _325_/B _326_/B _323_/X VGND VGND VPWR VPWR _511_/D sky130_fd_sc_hd__a31o_1
X_255_ _276_/A _255_/B VGND VGND VPWR VPWR _256_/A sky130_fd_sc_hd__nand2_1
XFILLER_0_29 VGND VGND VPWR VPWR sky130_fd_sc_hd__decap_12
XFILLER_9_38 VGND VGND VPWR VPWR sky130_fd_sc_hd__decap_12
XFILLER_18_69 VGND VGND VPWR VPWR sky130_fd_sc_hd__decap_4
XFILLER_1_3 VGND VGND VPWR VPWR sky130_fd_sc_hd__decap_12
X_307_ _284_/X _309_/B _310_/B _306_/X VGND VGND VPWR VPWR _505_/D sky130_fd_sc_hd__a31o_1
X_238_ _248_/A _238_/B VGND VGND VPWR VPWR _239_/A sky130_fd_sc_hd__nand2_1
XFILLER_29_24 VGND VGND VPWR VPWR sky130_fd_sc_hd__decap_8
XFILLER_20_48 VGND VGND VPWR VPWR sky130_fd_sc_hd__fill_1
XFILLER_19_177 VGND VGND VPWR VPWR sky130_fd_sc_hd__decap_4
XFILLER_25_103 VGND VGND VPWR VPWR sky130_fd_sc_hd__decap_8
XFILLER_15_48 VGND VGND VPWR VPWR sky130_fd_sc_hd__fill_1
XFILLER_15_15 VGND VGND VPWR VPWR sky130_fd_sc_hd__decap_4
XFILLER_16_125 VGND VGND VPWR VPWR sky130_fd_sc_hd__decap_6
XTAP_139 VGND VPWR sky130_fd_sc_hd__tapvpwrvgnd_1
XFILLER_22_106 VGND VGND VPWR VPWR sky130_fd_sc_hd__decap_6
XTAP_128 VGND VPWR sky130_fd_sc_hd__tapvpwrvgnd_1
XTAP_117 VGND VPWR sky130_fd_sc_hd__tapvpwrvgnd_1
XTAP_106 VGND VPWR sky130_fd_sc_hd__tapvpwrvgnd_1
XPHY_0 VGND VGND VPWR VPWR sky130_fd_sc_hd__decap_3
XFILLER_7_60 VGND VGND VPWR VPWR sky130_fd_sc_hd__decap_8
XFILLER_26_36 VGND VGND VPWR VPWR sky130_fd_sc_hd__decap_12
XFILLER_21_172 VGND VGND VPWR VPWR sky130_fd_sc_hd__decap_12
XFILLER_13_128 VGND VGND VPWR VPWR sky130_fd_sc_hd__decap_6
X_486_ _493_/CLK _486_/D _412_/Y VGND VGND VPWR VPWR _486_/Q sky130_fd_sc_hd__dfrtp_1
XFILLER_8_165 VGND VGND VPWR VPWR sky130_fd_sc_hd__decap_4
XFILLER_8_176 VGND VGND VPWR VPWR sky130_fd_sc_hd__decap_4
XFILLER_12_27 VGND VGND VPWR VPWR sky130_fd_sc_hd__fill_1
X_271_ _276_/A _271_/B VGND VGND VPWR VPWR _272_/A sky130_fd_sc_hd__nand2_1
XFILLER_27_90 VGND VGND VPWR VPWR sky130_fd_sc_hd__decap_4
X_340_ _517_/Q _520_/Q VGND VGND VPWR VPWR _340_/X sky130_fd_sc_hd__and2_1
X_538_ _538_/CLK _538_/D _474_/Y VGND VGND VPWR VPWR _538_/Q sky130_fd_sc_hd__dfrtp_1
XFILLER_5_146 VGND VGND VPWR VPWR sky130_fd_sc_hd__fill_2
XFILLER_23_15 VGND VGND VPWR VPWR sky130_fd_sc_hd__decap_12
X_469_ _470_/A VGND VGND VPWR VPWR _469_/Y sky130_fd_sc_hd__inv_2
X_323_ _511_/Q _514_/Q VGND VGND VPWR VPWR _323_/X sky130_fd_sc_hd__and2_1
X_254_ _362_/A VGND VGND VPWR VPWR _276_/A sky130_fd_sc_hd__clkbuf_2
XFILLER_3_7 VGND VGND VPWR VPWR sky130_fd_sc_hd__fill_1
XFILLER_2_105 VGND VGND VPWR VPWR sky130_fd_sc_hd__decap_12
XFILLER_18_15 VGND VGND VPWR VPWR sky130_fd_sc_hd__decap_12
XFILLER_27_3 VGND VGND VPWR VPWR sky130_fd_sc_hd__decap_12
X_306_ _505_/Q _508_/Q VGND VGND VPWR VPWR _306_/X sky130_fd_sc_hd__and2_1
X_237_ _223_/X _238_/B _239_/B _236_/X VGND VGND VPWR VPWR _479_/D sky130_fd_sc_hd__a31o_1
XFILLER_28_156 VGND VGND VPWR VPWR sky130_fd_sc_hd__decap_4
XFILLER_28_134 VGND VGND VPWR VPWR sky130_fd_sc_hd__decap_6
XFILLER_28_112 VGND VGND VPWR VPWR sky130_fd_sc_hd__decap_6
XFILLER_20_27 VGND VGND VPWR VPWR sky130_fd_sc_hd__fill_1
XFILLER_19_80 VGND VGND VPWR VPWR sky130_fd_sc_hd__decap_4
XFILLER_13_9 VGND VGND VPWR VPWR sky130_fd_sc_hd__decap_12
XFILLER_6_29 VGND VGND VPWR VPWR sky130_fd_sc_hd__decap_3
XFILLER_10_82 VGND VGND VPWR VPWR sky130_fd_sc_hd__fill_2
XFILLER_31_48 VGND VGND VPWR VPWR sky130_fd_sc_hd__decap_8
XFILLER_24_181 VGND VGND VPWR VPWR sky130_fd_sc_hd__decap_4
XFILLER_30_195 VGND VGND VPWR VPWR sky130_fd_sc_hd__fill_1
XTAP_129 VGND VPWR sky130_fd_sc_hd__tapvpwrvgnd_1
XTAP_118 VGND VPWR sky130_fd_sc_hd__tapvpwrvgnd_1
XFILLER_15_192 VGND VGND VPWR VPWR sky130_fd_sc_hd__decap_4
XTAP_107 VGND VPWR sky130_fd_sc_hd__tapvpwrvgnd_1
XPHY_1 VGND VGND VPWR VPWR sky130_fd_sc_hd__decap_3
XFILLER_21_184 VGND VGND VPWR VPWR sky130_fd_sc_hd__decap_12
XFILLER_21_162 VGND VGND VPWR VPWR sky130_fd_sc_hd__decap_6
Xclkbuf_2_3_0_clk clkbuf_2_3_0_clk/A VGND VGND VPWR VPWR clkbuf_3_7_0_clk/A sky130_fd_sc_hd__clkbuf_2
X_485_ _493_/CLK _485_/D _411_/Y VGND VGND VPWR VPWR _485_/Q sky130_fd_sc_hd__dfrtp_1
XFILLER_16_92 VGND VGND VPWR VPWR sky130_fd_sc_hd__decap_6
X_270_ _257_/X _271_/B _272_/B _269_/X VGND VGND VPWR VPWR _491_/D sky130_fd_sc_hd__a31o_1
XFILLER_5_169 VGND VGND VPWR VPWR sky130_fd_sc_hd__decap_4
X_399_ _402_/A VGND VGND VPWR VPWR _399_/Y sky130_fd_sc_hd__inv_2
XFILLER_4_73 VGND VGND VPWR VPWR sky130_fd_sc_hd__decap_4
X_537_ _538_/CLK _537_/D _473_/Y VGND VGND VPWR VPWR _537_/Q sky130_fd_sc_hd__dfrtp_1
X_468_ _470_/A VGND VGND VPWR VPWR _468_/Y sky130_fd_sc_hd__inv_2
X_322_ _511_/Q _514_/Q VGND VGND VPWR VPWR _326_/B sky130_fd_sc_hd__xor2_1
XFILLER_23_27 VGND VGND VPWR VPWR sky130_fd_sc_hd__decap_8
XFILLER_2_139 VGND VGND VPWR VPWR sky130_fd_sc_hd__fill_1
XFILLER_2_117 VGND VGND VPWR VPWR sky130_fd_sc_hd__decap_8
X_253_ _253_/A VGND VGND VPWR VPWR _362_/A sky130_fd_sc_hd__clkbuf_2
XFILLER_18_49 VGND VGND VPWR VPWR sky130_fd_sc_hd__decap_12
XFILLER_18_27 VGND VGND VPWR VPWR sky130_fd_sc_hd__fill_1
X_305_ _505_/Q _508_/Q VGND VGND VPWR VPWR _310_/B sky130_fd_sc_hd__xor2_1
X_236_ _479_/Q _482_/Q VGND VGND VPWR VPWR _236_/X sky130_fd_sc_hd__and2_1
XFILLER_29_15 VGND VGND VPWR VPWR sky130_fd_sc_hd__fill_2
XFILLER_1_96 VGND VGND VPWR VPWR sky130_fd_sc_hd__decap_12
XFILLER_1_30 VGND VGND VPWR VPWR sky130_fd_sc_hd__decap_12
XFILLER_28_146 VGND VGND VPWR VPWR sky130_fd_sc_hd__decap_6
XFILLER_19_113 VGND VGND VPWR VPWR sky130_fd_sc_hd__decap_8
XFILLER_27_190 VGND VGND VPWR VPWR sky130_fd_sc_hd__decap_6
XFILLER_19_146 VGND VGND VPWR VPWR sky130_fd_sc_hd__fill_2
XFILLER_31_27 VGND VGND VPWR VPWR sky130_fd_sc_hd__decap_6
XFILLER_25_149 VGND VGND VPWR VPWR sky130_fd_sc_hd__decap_4
XFILLER_31_108 VGND VGND VPWR VPWR sky130_fd_sc_hd__decap_4
XTAP_119 VGND VPWR sky130_fd_sc_hd__tapvpwrvgnd_1
Xclkbuf_0_clk clk VGND VGND VPWR VPWR clkbuf_0_clk/X sky130_fd_sc_hd__clkbuf_16
XTAP_108 VGND VPWR sky130_fd_sc_hd__tapvpwrvgnd_1
XPHY_2 VGND VGND VPWR VPWR sky130_fd_sc_hd__decap_3
XFILLER_11_7 VGND VGND VPWR VPWR sky130_fd_sc_hd__fill_1
XFILLER_30_163 VGND VGND VPWR VPWR sky130_fd_sc_hd__decap_4
XFILLER_30_141 VGND VGND VPWR VPWR sky130_fd_sc_hd__decap_6
XFILLER_26_27 VGND VGND VPWR VPWR sky130_fd_sc_hd__fill_1
XFILLER_21_141 VGND VGND VPWR VPWR sky130_fd_sc_hd__decap_8
XFILLER_13_108 VGND VGND VPWR VPWR sky130_fd_sc_hd__decap_4
XFILLER_16_71 VGND VGND VPWR VPWR sky130_fd_sc_hd__decap_4
XFILLER_16_60 VGND VGND VPWR VPWR sky130_fd_sc_hd__decap_4
X_484_ _497_/CLK _484_/D _409_/Y VGND VGND VPWR VPWR _484_/Q sky130_fd_sc_hd__dfrtp_1
XFILLER_12_29 VGND VGND VPWR VPWR sky130_fd_sc_hd__decap_3
X_536_ _536_/CLK _536_/D _472_/Y VGND VGND VPWR VPWR _536_/Q sky130_fd_sc_hd__dfrtp_1
XFILLER_4_41 VGND VGND VPWR VPWR sky130_fd_sc_hd__fill_2
XFILLER_4_85 VGND VGND VPWR VPWR sky130_fd_sc_hd__decap_4
XFILLER_4_181 VGND VGND VPWR VPWR sky130_fd_sc_hd__decap_4
X_467_ _470_/A VGND VGND VPWR VPWR _467_/Y sky130_fd_sc_hd__inv_2
X_398_ _402_/A VGND VGND VPWR VPWR _398_/Y sky130_fd_sc_hd__inv_2
XFILLER_23_39 VGND VGND VPWR VPWR sky130_fd_sc_hd__decap_4
Xclkbuf_2_2_0_clk clkbuf_2_3_0_clk/A VGND VGND VPWR VPWR clkbuf_3_5_0_clk/A sky130_fd_sc_hd__clkbuf_2
X_321_ _321_/A _321_/B VGND VGND VPWR VPWR _510_/D sky130_fd_sc_hd__xnor2_1
X_252_ _223_/X _255_/B _256_/B _251_/X VGND VGND VPWR VPWR _485_/D sky130_fd_sc_hd__a31o_1
XFILLER_1_184 VGND VGND VPWR VPWR sky130_fd_sc_hd__decap_12
XFILLER_9_19 VGND VGND VPWR VPWR sky130_fd_sc_hd__decap_4
X_519_ _526_/CLK _519_/D _452_/Y VGND VGND VPWR VPWR _519_/Q sky130_fd_sc_hd__dfrtp_1
X_235_ _479_/Q _482_/Q VGND VGND VPWR VPWR _239_/B sky130_fd_sc_hd__xor2_1
X_304_ _304_/A _304_/B VGND VGND VPWR VPWR _504_/D sky130_fd_sc_hd__xnor2_1
XFILLER_1_42 VGND VGND VPWR VPWR sky130_fd_sc_hd__decap_12
XFILLER_28_125 VGND VGND VPWR VPWR sky130_fd_sc_hd__decap_4
XFILLER_19_169 VGND VGND VPWR VPWR sky130_fd_sc_hd__decap_4
XFILLER_19_93 VGND VGND VPWR VPWR sky130_fd_sc_hd__fill_1
XFILLER_19_71 VGND VGND VPWR VPWR sky130_fd_sc_hd__decap_4
XFILLER_25_128 VGND VGND VPWR VPWR sky130_fd_sc_hd__decap_4
XTAP_109 VGND VPWR sky130_fd_sc_hd__tapvpwrvgnd_1
XFILLER_30_131 VGND VGND VPWR VPWR sky130_fd_sc_hd__decap_8
XPHY_3 VGND VGND VPWR VPWR sky130_fd_sc_hd__decap_3
X_483_ _497_/CLK _483_/D _408_/Y VGND VGND VPWR VPWR _483_/Q sky130_fd_sc_hd__dfrtp_1
XFILLER_12_120 VGND VGND VPWR VPWR sky130_fd_sc_hd__decap_8
XFILLER_12_164 VGND VGND VPWR VPWR sky130_fd_sc_hd__decap_8
XFILLER_5_116 VGND VGND VPWR VPWR sky130_fd_sc_hd__decap_4
XFILLER_5_127 VGND VGND VPWR VPWR sky130_fd_sc_hd__decap_4
X_397_ _474_/A VGND VGND VPWR VPWR _402_/A sky130_fd_sc_hd__clkbuf_4
X_535_ _538_/CLK _535_/D _471_/Y VGND VGND VPWR VPWR _535_/Q sky130_fd_sc_hd__dfrtp_1
X_466_ _470_/A VGND VGND VPWR VPWR _466_/Y sky130_fd_sc_hd__inv_2
XFILLER_4_64 VGND VGND VPWR VPWR sky130_fd_sc_hd__decap_6
X_320_ _330_/A _320_/B VGND VGND VPWR VPWR _321_/A sky130_fd_sc_hd__nand2_1
X_251_ _485_/Q _488_/Q VGND VGND VPWR VPWR _251_/X sky130_fd_sc_hd__and2_1
XFILLER_13_95 VGND VGND VPWR VPWR sky130_fd_sc_hd__decap_6
XFILLER_1_163 VGND VGND VPWR VPWR sky130_fd_sc_hd__decap_4
X_449_ _452_/A VGND VGND VPWR VPWR _449_/Y sky130_fd_sc_hd__inv_2
X_518_ _518_/CLK _518_/D _451_/Y VGND VGND VPWR VPWR _518_/Q sky130_fd_sc_hd__dfrtp_1
XFILLER_24_83 VGND VGND VPWR VPWR sky130_fd_sc_hd__fill_1
Xclkbuf_2_1_0_clk clkbuf_2_1_0_clk/A VGND VGND VPWR VPWR clkbuf_3_3_0_clk/A sky130_fd_sc_hd__clkbuf_2
X_234_ _234_/A VGND VGND VPWR VPWR _478_/D sky130_fd_sc_hd__clkbuf_1
XFILLER_1_54 VGND VGND VPWR VPWR sky130_fd_sc_hd__fill_2
X_303_ _303_/A _303_/B VGND VGND VPWR VPWR _304_/A sky130_fd_sc_hd__nand2_1
XFILLER_20_19 VGND VGND VPWR VPWR sky130_fd_sc_hd__decap_8
XFILLER_10_63 VGND VGND VPWR VPWR sky130_fd_sc_hd__decap_4
XFILLER_10_74 VGND VGND VPWR VPWR sky130_fd_sc_hd__decap_8
XFILLER_25_3 VGND VGND VPWR VPWR sky130_fd_sc_hd__decap_4
XFILLER_18_181 VGND VGND VPWR VPWR sky130_fd_sc_hd__decap_12
XFILLER_21_95 VGND VGND VPWR VPWR sky130_fd_sc_hd__decap_4
XFILLER_16_118 VGND VGND VPWR VPWR sky130_fd_sc_hd__decap_4
XFILLER_30_154 VGND VGND VPWR VPWR sky130_fd_sc_hd__decap_4
XPHY_4 VGND VGND VPWR VPWR sky130_fd_sc_hd__decap_3
XFILLER_21_154 VGND VGND VPWR VPWR sky130_fd_sc_hd__decap_4
XFILLER_32_83 VGND VGND VPWR VPWR sky130_fd_sc_hd__fill_1
XFILLER_12_110 VGND VGND VPWR VPWR sky130_fd_sc_hd__decap_6
X_482_ _505_/CLK _482_/D _407_/Y VGND VGND VPWR VPWR _482_/Q sky130_fd_sc_hd__dfrtp_1
X_396_ _465_/A VGND VGND VPWR VPWR _474_/A sky130_fd_sc_hd__clkbuf_2
X_534_ _536_/CLK _534_/D _470_/Y VGND VGND VPWR VPWR _534_/Q sky130_fd_sc_hd__dfrtp_1
X_465_ _465_/A VGND VGND VPWR VPWR _470_/A sky130_fd_sc_hd__buf_2
XFILLER_4_54 VGND VGND VPWR VPWR sky130_fd_sc_hd__decap_3
X_250_ _485_/Q _488_/Q VGND VGND VPWR VPWR _256_/B sky130_fd_sc_hd__xor2_1
XFILLER_13_85 VGND VGND VPWR VPWR sky130_fd_sc_hd__decap_3
X_448_ _452_/A VGND VGND VPWR VPWR _448_/Y sky130_fd_sc_hd__inv_2
X_517_ _526_/CLK _517_/D _450_/Y VGND VGND VPWR VPWR _517_/Q sky130_fd_sc_hd__dfrtp_1
X_379_ _384_/A _379_/B VGND VGND VPWR VPWR _380_/A sky130_fd_sc_hd__nand2_1
X_233_ _477_/D _233_/B VGND VGND VPWR VPWR _234_/A sky130_fd_sc_hd__and2_1
X_302_ _284_/X _303_/B _304_/B _301_/X VGND VGND VPWR VPWR _503_/D sky130_fd_sc_hd__a31o_1
XFILLER_28_105 VGND VGND VPWR VPWR sky130_fd_sc_hd__decap_4
XFILLER_27_160 VGND VGND VPWR VPWR sky130_fd_sc_hd__decap_8
XFILLER_19_138 VGND VGND VPWR VPWR sky130_fd_sc_hd__decap_8
XFILLER_18_193 VGND VGND VPWR VPWR sky130_fd_sc_hd__decap_3
XFILLER_18_3 VGND VGND VPWR VPWR sky130_fd_sc_hd__decap_12
XFILLER_24_174 VGND VGND VPWR VPWR sky130_fd_sc_hd__decap_4
XFILLER_24_152 VGND VGND VPWR VPWR sky130_fd_sc_hd__fill_1
XFILLER_21_85 VGND VGND VPWR VPWR sky130_fd_sc_hd__decap_3
XFILLER_21_41 VGND VGND VPWR VPWR sky130_fd_sc_hd__decap_12
XFILLER_30_177 VGND VGND VPWR VPWR sky130_fd_sc_hd__decap_4
Xclkbuf_2_0_0_clk clkbuf_2_1_0_clk/A VGND VGND VPWR VPWR clkbuf_3_1_0_clk/A sky130_fd_sc_hd__clkbuf_2
XPHY_5 VGND VGND VPWR VPWR sky130_fd_sc_hd__decap_3
XFILLER_7_21 VGND VGND VPWR VPWR sky130_fd_sc_hd__decap_8
XFILLER_7_76 VGND VGND VPWR VPWR sky130_fd_sc_hd__decap_12
XFILLER_21_133 VGND VGND VPWR VPWR sky130_fd_sc_hd__decap_4
XFILLER_32_95 VGND VGND VPWR VPWR sky130_fd_sc_hd__decap_4
XFILLER_16_85 VGND VGND VPWR VPWR sky130_fd_sc_hd__decap_4
X_481_ _497_/CLK _481_/D _406_/Y VGND VGND VPWR VPWR _481_/Q sky130_fd_sc_hd__dfrtp_1
XFILLER_7_181 VGND VGND VPWR VPWR sky130_fd_sc_hd__decap_12
X_464_ _464_/A VGND VGND VPWR VPWR _464_/Y sky130_fd_sc_hd__inv_2
X_533_ _536_/CLK _533_/D _469_/Y VGND VGND VPWR VPWR _533_/Q sky130_fd_sc_hd__dfrtp_1
XFILLER_5_107 VGND VGND VPWR VPWR sky130_fd_sc_hd__decap_4
XFILLER_4_173 VGND VGND VPWR VPWR sky130_fd_sc_hd__fill_1
X_395_ _395_/A _395_/B VGND VGND VPWR VPWR _538_/D sky130_fd_sc_hd__xnor2_1
XFILLER_13_42 VGND VGND VPWR VPWR sky130_fd_sc_hd__decap_12
XFILLER_13_31 VGND VGND VPWR VPWR sky130_fd_sc_hd__decap_4
X_516_ _526_/CLK _516_/D _449_/Y VGND VGND VPWR VPWR _516_/Q sky130_fd_sc_hd__dfrtp_1
X_447_ _459_/A VGND VGND VPWR VPWR _452_/A sky130_fd_sc_hd__buf_2
X_378_ _365_/X _379_/B _380_/B _377_/X VGND VGND VPWR VPWR _531_/D sky130_fd_sc_hd__a31o_1
XFILLER_24_96 VGND VGND VPWR VPWR sky130_fd_sc_hd__decap_3
XFILLER_24_41 VGND VGND VPWR VPWR sky130_fd_sc_hd__decap_3
X_232_ _365_/A _232_/B _477_/Q VGND VGND VPWR VPWR _233_/B sky130_fd_sc_hd__nand3_1
X_301_ _503_/Q _506_/Q VGND VGND VPWR VPWR _301_/X sky130_fd_sc_hd__and2_1
XFILLER_27_150 VGND VGND VPWR VPWR sky130_fd_sc_hd__decap_6
XFILLER_21_53 VGND VGND VPWR VPWR sky130_fd_sc_hd__decap_3
XFILLER_15_164 VGND VGND VPWR VPWR sky130_fd_sc_hd__decap_4
XFILLER_15_153 VGND VGND VPWR VPWR sky130_fd_sc_hd__decap_4
XPHY_6 VGND VGND VPWR VPWR sky130_fd_sc_hd__decap_3
XFILLER_7_88 VGND VGND VPWR VPWR sky130_fd_sc_hd__decap_12
XFILLER_12_145 VGND VGND VPWR VPWR sky130_fd_sc_hd__decap_4
XFILLER_12_134 VGND VGND VPWR VPWR sky130_fd_sc_hd__decap_6
X_480_ _497_/CLK _480_/D _405_/Y VGND VGND VPWR VPWR _480_/Q sky130_fd_sc_hd__dfrtp_1
XFILLER_8_138 VGND VGND VPWR VPWR sky130_fd_sc_hd__fill_2
XFILLER_7_193 VGND VGND VPWR VPWR sky130_fd_sc_hd__decap_3
XFILLER_27_85 VGND VGND VPWR VPWR sky130_fd_sc_hd__fill_2
X_463_ _464_/A VGND VGND VPWR VPWR _463_/Y sky130_fd_sc_hd__inv_2
XFILLER_4_141 VGND VGND VPWR VPWR sky130_fd_sc_hd__fill_2
X_394_ _394_/A _394_/B VGND VGND VPWR VPWR _395_/A sky130_fd_sc_hd__nand2_1
X_532_ _536_/CLK _532_/D _468_/Y VGND VGND VPWR VPWR _532_/Q sky130_fd_sc_hd__dfrtp_1
X_515_ _518_/CLK _515_/D _448_/Y VGND VGND VPWR VPWR _515_/Q sky130_fd_sc_hd__dfrtp_1