*SPEF "ieee 1481-1999"
*DESIGN "spm"
*DATE "11:11:11 Fri 11 11, 1111"
*VENDOR "OpenRCX"
*PROGRAM "Parallel Extraction"
*VERSION "1.0"
*DESIGN_FLOW "NAME_SCOPE LOCAL" "PIN_CAP NONE"
*DIVIDER /
*DELIMITER :
*BUS_DELIMITER []
*T_UNIT 1 NS
*C_UNIT 1 PF
*R_UNIT 1 OHM
*L_UNIT 1 HENRY

*NAME_MAP
*3 clk
*4 p
*5 rst
*6 x[0]
*7 x[10]
*8 x[11]
*9 x[12]
*10 x[13]
*11 x[14]
*12 x[15]
*13 x[16]
*14 x[17]
*15 x[18]
*16 x[19]
*17 x[1]
*18 x[20]
*19 x[21]
*20 x[22]
*21 x[23]
*22 x[24]
*23 x[25]
*24 x[26]
*25 x[27]
*26 x[28]
*27 x[29]
*28 x[2]
*29 x[30]
*30 x[31]
*31 x[3]
*32 x[4]
*33 x[5]
*34 x[6]
*35 x[7]
*36 x[8]
*37 x[9]
*38 y
*39 _000_
*40 _001_
*41 _002_
*42 _003_
*43 _004_
*44 _005_
*45 _006_
*46 _007_
*47 _008_
*48 _009_
*49 _010_
*50 _011_
*51 _012_
*52 _013_
*53 _014_
*54 _015_
*55 _016_
*56 _017_
*57 _018_
*58 _019_
*59 _020_
*60 _021_
*61 _022_
*62 _023_
*63 _024_
*64 _025_
*65 _026_
*66 _027_
*67 _028_
*68 _029_
*69 _030_
*70 _031_
*71 _032_
*72 _033_
*73 _034_
*74 _035_
*75 _036_
*76 _037_
*77 _038_
*78 _039_
*79 _040_
*80 _041_
*81 _042_
*82 _043_
*83 _044_
*84 _045_
*85 _046_
*86 _047_
*87 _048_
*88 _049_
*89 _050_
*90 _051_
*91 _052_
*92 _053_
*93 _054_
*94 _055_
*95 _056_
*96 _057_
*97 _058_
*98 _059_
*99 _060_
*100 _061_
*101 _062_
*102 _063_
*103 _064_
*104 _065_
*105 _066_
*106 _067_
*107 _068_
*108 _069_
*109 _070_
*110 _071_
*111 _072_
*112 _073_
*113 _074_
*114 _075_
*115 _076_
*116 _077_
*117 _078_
*118 _079_
*119 _080_
*120 _081_
*121 _082_
*122 _083_
*123 _084_
*124 _085_
*125 _086_
*126 _087_
*127 _088_
*128 _089_
*129 _090_
*130 _091_
*131 _092_
*132 _093_
*133 _094_
*134 _095_
*135 _096_
*136 _097_
*137 _098_
*138 _099_
*139 _100_
*140 _101_
*141 _102_
*142 _103_
*143 _104_
*144 _105_
*145 _106_
*146 _107_
*147 _108_
*148 _109_
*149 _110_
*150 _111_
*151 _112_
*152 _113_
*153 _114_
*154 _115_
*155 _116_
*156 _117_
*157 _118_
*158 _119_
*159 _120_
*160 _121_
*161 _122_
*162 _123_
*163 _124_
*164 _125_
*165 _126_
*166 _127_
*167 _128_
*168 _129_
*169 _130_
*170 _131_
*171 _132_
*172 _133_
*173 _134_
*174 _135_
*175 _136_
*176 _137_
*177 _138_
*178 _139_
*179 _140_
*180 _141_
*181 _142_
*182 _143_
*183 _144_
*184 _145_
*185 _146_
*186 _147_
*187 _148_
*188 _149_
*189 _150_
*190 _151_
*191 _152_
*192 _153_
*193 _154_
*194 _155_
*195 _156_
*196 _157_
*197 _158_
*198 _159_
*199 _160_
*200 _161_
*201 _162_
*202 _163_
*203 _164_
*204 _165_
*205 _166_
*206 _167_
*207 _168_
*208 _169_
*209 _170_
*210 _171_
*211 _172_
*212 _173_
*213 _174_
*214 _175_
*215 _176_
*216 _177_
*217 _178_
*218 _179_
*219 _180_
*220 _181_
*221 _182_
*222 _183_
*223 _184_
*224 _185_
*225 _186_
*226 _187_
*227 _188_
*228 _189_
*229 _190_
*230 _191_
*231 _192_
*232 _193_
*233 _194_
*234 _195_
*235 _196_
*236 _197_
*237 _198_
*238 _199_
*239 _200_
*240 _201_
*241 _202_
*242 _203_
*243 _204_
*244 _205_
*245 _206_
*246 _207_
*247 _208_
*248 _209_
*249 _210_
*250 _211_
*251 _212_
*252 _213_
*253 _214_
*254 _215_
*255 _216_
*256 _217_
*257 _218_
*258 _219_
*259 _220_
*260 _221_
*261 clknet_0_clk
*262 clknet_1_0_0_clk
*263 clknet_1_1_0_clk
*264 clknet_2_0_0_clk
*265 clknet_2_1_0_clk
*266 clknet_2_2_0_clk
*267 clknet_2_3_0_clk
*268 clknet_3_0_0_clk
*269 clknet_3_1_0_clk
*270 clknet_3_2_0_clk
*271 clknet_3_3_0_clk
*272 clknet_3_4_0_clk
*273 clknet_3_5_0_clk
*274 clknet_3_6_0_clk
*275 clknet_3_7_0_clk
*276 csa0\.hsum2
*277 csa0\.sc
*278 csa0\.y
*279 genblk1\[10\]\.csa\.hsum2
*280 genblk1\[10\]\.csa\.sc
*281 genblk1\[10\]\.csa\.sum
*282 genblk1\[10\]\.csa\.y
*283 genblk1\[11\]\.csa\.hsum2
*284 genblk1\[11\]\.csa\.sc
*285 genblk1\[11\]\.csa\.y
*286 genblk1\[12\]\.csa\.hsum2
*287 genblk1\[12\]\.csa\.sc
*288 genblk1\[12\]\.csa\.y
*289 genblk1\[13\]\.csa\.hsum2
*290 genblk1\[13\]\.csa\.sc
*291 genblk1\[13\]\.csa\.y
*292 genblk1\[14\]\.csa\.hsum2
*293 genblk1\[14\]\.csa\.sc
*294 genblk1\[14\]\.csa\.y
*295 genblk1\[15\]\.csa\.hsum2
*296 genblk1\[15\]\.csa\.sc
*297 genblk1\[15\]\.csa\.y
*298 genblk1\[16\]\.csa\.hsum2
*299 genblk1\[16\]\.csa\.sc
*300 genblk1\[16\]\.csa\.y
*301 genblk1\[17\]\.csa\.hsum2
*302 genblk1\[17\]\.csa\.sc
*303 genblk1\[17\]\.csa\.y
*304 genblk1\[18\]\.csa\.hsum2
*305 genblk1\[18\]\.csa\.sc
*306 genblk1\[18\]\.csa\.y
*307 genblk1\[19\]\.csa\.hsum2
*308 genblk1\[19\]\.csa\.sc
*309 genblk1\[19\]\.csa\.y
*310 genblk1\[1\]\.csa\.hsum2
*311 genblk1\[1\]\.csa\.sc
*312 genblk1\[1\]\.csa\.y
*313 genblk1\[20\]\.csa\.hsum2
*314 genblk1\[20\]\.csa\.sc
*315 genblk1\[20\]\.csa\.y
*316 genblk1\[21\]\.csa\.hsum2
*317 genblk1\[21\]\.csa\.sc
*318 genblk1\[21\]\.csa\.y
*319 genblk1\[22\]\.csa\.hsum2
*320 genblk1\[22\]\.csa\.sc
*321 genblk1\[22\]\.csa\.y
*322 genblk1\[23\]\.csa\.hsum2
*323 genblk1\[23\]\.csa\.sc
*324 genblk1\[23\]\.csa\.y
*325 genblk1\[24\]\.csa\.hsum2
*326 genblk1\[24\]\.csa\.sc
*327 genblk1\[24\]\.csa\.y
*328 genblk1\[25\]\.csa\.hsum2
*329 genblk1\[25\]\.csa\.sc
*330 genblk1\[25\]\.csa\.y
*331 genblk1\[26\]\.csa\.hsum2
*332 genblk1\[26\]\.csa\.sc
*333 genblk1\[26\]\.csa\.y
*334 genblk1\[27\]\.csa\.hsum2
*335 genblk1\[27\]\.csa\.sc
*336 genblk1\[27\]\.csa\.y
*337 genblk1\[28\]\.csa\.hsum2
*338 genblk1\[28\]\.csa\.sc
*339 genblk1\[28\]\.csa\.y
*340 genblk1\[29\]\.csa\.hsum2
*341 genblk1\[29\]\.csa\.sc
*342 genblk1\[29\]\.csa\.y
*343 genblk1\[2\]\.csa\.hsum2
*344 genblk1\[2\]\.csa\.sc
*345 genblk1\[2\]\.csa\.y
*346 genblk1\[30\]\.csa\.hsum2
*347 genblk1\[30\]\.csa\.sc
*348 genblk1\[30\]\.csa\.y
*349 genblk1\[3\]\.csa\.hsum2
*350 genblk1\[3\]\.csa\.sc
*351 genblk1\[3\]\.csa\.y
*352 genblk1\[4\]\.csa\.hsum2
*353 genblk1\[4\]\.csa\.sc
*354 genblk1\[4\]\.csa\.y
*355 genblk1\[5\]\.csa\.hsum2
*356 genblk1\[5\]\.csa\.sc
*357 genblk1\[5\]\.csa\.y
*358 genblk1\[6\]\.csa\.hsum2
*359 genblk1\[6\]\.csa\.sc
*360 genblk1\[6\]\.csa\.y
*361 genblk1\[7\]\.csa\.hsum2
*362 genblk1\[7\]\.csa\.sc
*363 genblk1\[7\]\.csa\.y
*364 genblk1\[8\]\.csa\.hsum2
*365 genblk1\[8\]\.csa\.sc
*366 genblk1\[8\]\.csa\.y
*367 genblk1\[9\]\.csa\.hsum2
*368 genblk1\[9\]\.csa\.sc
*369 net1
*370 net10
*371 net11
*372 net12
*373 net13
*374 net14
*375 net15
*376 net16
*377 net17
*378 net18
*379 net19
*380 net2
*381 net20
*382 net21
*383 net22
*384 net23
*385 net24
*386 net25
*387 net26
*388 net27
*389 net28
*390 net29
*391 net3
*392 net30
*393 net31
*394 net32
*395 net33
*396 net34
*397 net35
*398 net4
*399 net5
*400 net6
*401 net7
*402 net8
*403 net9
*404 tcmp\.z
*405 FILLER_0_104
*406 FILLER_0_113
*407 FILLER_0_125
*408 FILLER_0_137
*409 FILLER_0_144
*410 FILLER_0_15
*411 FILLER_0_156
*412 FILLER_0_169
*413 FILLER_0_181
*414 FILLER_0_193
*415 FILLER_0_27
*416 FILLER_0_29
*417 FILLER_0_3
*418 FILLER_0_41
*419 FILLER_0_53
*420 FILLER_0_57
*421 FILLER_0_69
*422 FILLER_0_81
*423 FILLER_0_85
*424 FILLER_0_97
*425 FILLER_10_105
*426 FILLER_10_129
*427 FILLER_10_136
*428 FILLER_10_161
*429 FILLER_10_173
*430 FILLER_10_181
*431 FILLER_10_187
*432 FILLER_10_195
*433 FILLER_10_23
*434 FILLER_10_27
*435 FILLER_10_29
*436 FILLER_10_37
*437 FILLER_10_44
*438 FILLER_10_55
*439 FILLER_10_63
*440 FILLER_10_74
*441 FILLER_10_82
*442 FILLER_11_104
*443 FILLER_11_108
*444 FILLER_11_113
*445 FILLER_11_136
*446 FILLER_11_144
*447 FILLER_11_15
*448 FILLER_11_152
*449 FILLER_11_160
*450 FILLER_11_164
*451 FILLER_11_176
*452 FILLER_11_182
*453 FILLER_11_190
*454 FILLER_11_24
*455 FILLER_11_3
*456 FILLER_11_48
*457 FILLER_11_61
*458 FILLER_11_67
*459 FILLER_11_7
*460 FILLER_11_73
*461 FILLER_11_80
*462 FILLER_11_92
*463 FILLER_12_110
*464 FILLER_12_120
*465 FILLER_12_128
*466 FILLER_12_134
*467 FILLER_12_145
*468 FILLER_12_149
*469 FILLER_12_15
*470 FILLER_12_157
*471 FILLER_12_164
*472 FILLER_12_179
*473 FILLER_12_190
*474 FILLER_12_27
*475 FILLER_12_29
*476 FILLER_12_3
*477 FILLER_12_35
*478 FILLER_12_43
*479 FILLER_12_50
*480 FILLER_12_61
*481 FILLER_12_72
*482 FILLER_12_85
*483 FILLER_12_93
*484 FILLER_12_98
*485 FILLER_13_108
*486 FILLER_13_113
*487 FILLER_13_121
*488 FILLER_13_128
*489 FILLER_13_154
*490 FILLER_13_163
*491 FILLER_13_167
*492 FILLER_13_169
*493 FILLER_13_191
*494 FILLER_13_195
*495 FILLER_13_21
*496 FILLER_13_3
*497 FILLER_13_31
*498 FILLER_13_42
*499 FILLER_13_54
*500 FILLER_13_77
*501 FILLER_13_85
*502 FILLER_13_9
*503 FILLER_13_95
*504 FILLER_14_10
*505 FILLER_14_105
*506 FILLER_14_129
*507 FILLER_14_137
*508 FILLER_14_141
*509 FILLER_14_149
*510 FILLER_14_16
*511 FILLER_14_160
*512 FILLER_14_172
*513 FILLER_14_179
*514 FILLER_14_186
*515 FILLER_14_194
*516 FILLER_14_24
*517 FILLER_14_49
*518 FILLER_14_57
*519 FILLER_14_68
*520 FILLER_14_80
*521 FILLER_15_100
*522 FILLER_15_108
*523 FILLER_15_118
*524 FILLER_15_146
*525 FILLER_15_15
*526 FILLER_15_153
*527 FILLER_15_164
*528 FILLER_15_169
*529 FILLER_15_192
*530 FILLER_15_22
*531 FILLER_15_3
*532 FILLER_15_34
*533 FILLER_15_42
*534 FILLER_15_48
*535 FILLER_15_52
*536 FILLER_15_57
*537 FILLER_15_61
*538 FILLER_15_82
*539 FILLER_15_86
*540 FILLER_15_94
*541 FILLER_16_118
*542 FILLER_16_125
*543 FILLER_16_134
*544 FILLER_16_146
*545 FILLER_16_178
*546 FILLER_16_187
*547 FILLER_16_195
*548 FILLER_16_23
*549 FILLER_16_27
*550 FILLER_16_29
*551 FILLER_16_37
*552 FILLER_16_60
*553 FILLER_16_71
*554 FILLER_16_78
*555 FILLER_16_85
*556 FILLER_16_92
*557 FILLER_17_106
*558 FILLER_17_113
*559 FILLER_17_120
*560 FILLER_17_128
*561 FILLER_17_132
*562 FILLER_17_137
*563 FILLER_17_147
*564 FILLER_17_155
*565 FILLER_17_16
*566 FILLER_17_167
*567 FILLER_17_172
*568 FILLER_17_187
*569 FILLER_17_195
*570 FILLER_17_28
*571 FILLER_17_36
*572 FILLER_17_41
*573 FILLER_17_52
*574 FILLER_17_57
*575 FILLER_17_68
*576 FILLER_17_7
*577 FILLER_17_76
*578 FILLER_17_99
*579 FILLER_18_102
*580 FILLER_18_126
*581 FILLER_18_138
*582 FILLER_18_141
*583 FILLER_18_145
*584 FILLER_18_15
*585 FILLER_18_156
*586 FILLER_18_169
*587 FILLER_18_181
*588 FILLER_18_193
*589 FILLER_18_27
*590 FILLER_18_3
*591 FILLER_18_49
*592 FILLER_18_61
*593 FILLER_18_69
*594 FILLER_18_77
*595 FILLER_18_83
*596 FILLER_18_85
*597 FILLER_18_97
*598 FILLER_19_11
*599 FILLER_19_110
*600 FILLER_19_113
*601 FILLER_19_121
*602 FILLER_19_129
*603 FILLER_19_138
*604 FILLER_19_146
*605 FILLER_19_152
*606 FILLER_19_160
*607 FILLER_19_169
*608 FILLER_19_177
*609 FILLER_19_184
*610 FILLER_19_191
*611 FILLER_19_195
*612 FILLER_19_21
*613 FILLER_19_29
*614 FILLER_19_3
*615 FILLER_19_34
*616 FILLER_19_44
*617 FILLER_19_64
*618 FILLER_19_71
*619 FILLER_19_75
*620 FILLER_19_80
*621 FILLER_19_87
*622 FILLER_19_93
*623 FILLER_19_98
*624 FILLER_1_108
*625 FILLER_1_113
*626 FILLER_1_125
*627 FILLER_1_149
*628 FILLER_1_157
*629 FILLER_1_163
*630 FILLER_1_167
*631 FILLER_1_169
*632 FILLER_1_177
*633 FILLER_1_18
*634 FILLER_1_184
*635 FILLER_1_3
*636 FILLER_1_30
*637 FILLER_1_42
*638 FILLER_1_54
*639 FILLER_1_57
*640 FILLER_1_79
*641 FILLER_1_91
*642 FILLER_1_96
*643 FILLER_20_106
*644 FILLER_20_11
*645 FILLER_20_116
*646 FILLER_20_128
*647 FILLER_20_144
*648 FILLER_20_152
*649 FILLER_20_160
*650 FILLER_20_168
*651 FILLER_20_19
*652 FILLER_20_192
*653 FILLER_20_27
*654 FILLER_20_3
*655 FILLER_20_32
*656 FILLER_20_44
*657 FILLER_20_48
*658 FILLER_20_56
*659 FILLER_20_64
*660 FILLER_20_70
*661 FILLER_20_75
*662 FILLER_20_83
*663 FILLER_20_85
*664 FILLER_20_98
*665 FILLER_21_106
*666 FILLER_21_133
*667 FILLER_21_141
*668 FILLER_21_149
*669 FILLER_21_154
*670 FILLER_21_162
*671 FILLER_21_172
*672 FILLER_21_184
*673 FILLER_21_23
*674 FILLER_21_32
*675 FILLER_21_36
*676 FILLER_21_41
*677 FILLER_21_53
*678 FILLER_21_77
*679 FILLER_21_85
*680 FILLER_21_95
*681 FILLER_22_106
*682 FILLER_22_115
*683 FILLER_22_123
*684 FILLER_22_131
*685 FILLER_22_136
*686 FILLER_22_161
*687 FILLER_22_176
*688 FILLER_22_182
*689 FILLER_22_190
*690 FILLER_22_20
*691 FILLER_22_3
*692 FILLER_22_49
*693 FILLER_22_57
*694 FILLER_22_65
*695 FILLER_22_72
*696 FILLER_22_88
*697 FILLER_22_9
*698 FILLER_22_96
*699 FILLER_23_101
*700 FILLER_23_109
*701 FILLER_23_113
*702 FILLER_23_121
*703 FILLER_23_128
*704 FILLER_23_136
*705 FILLER_23_147
*706 FILLER_23_15
*707 FILLER_23_158
*708 FILLER_23_166
*709 FILLER_23_189
*710 FILLER_23_195
*711 FILLER_23_27
*712 FILLER_23_3
*713 FILLER_23_35
*714 FILLER_23_39
*715 FILLER_23_47
*716 FILLER_23_55
*717 FILLER_23_57
*718 FILLER_23_68
*719 FILLER_23_92
*720 FILLER_24_102
*721 FILLER_24_110
*722 FILLER_24_133
*723 FILLER_24_139
*724 FILLER_24_148
*725 FILLER_24_15
*726 FILLER_24_152
*727 FILLER_24_158
*728 FILLER_24_165
*729 FILLER_24_174
*730 FILLER_24_181
*731 FILLER_24_190
*732 FILLER_24_24
*733 FILLER_24_29
*734 FILLER_24_3
*735 FILLER_24_41
*736 FILLER_24_64
*737 FILLER_24_75
*738 FILLER_24_83
*739 FILLER_24_88
*740 FILLER_24_96
*741 FILLER_25_10
*742 FILLER_25_103
*743 FILLER_25_111
*744 FILLER_25_113
*745 FILLER_25_128
*746 FILLER_25_135
*747 FILLER_25_142
*748 FILLER_25_149
*749 FILLER_25_156
*750 FILLER_25_160
*751 FILLER_25_164
*752 FILLER_25_176
*753 FILLER_25_182
*754 FILLER_25_186
*755 FILLER_25_194
*756 FILLER_25_21
*757 FILLER_25_3
*758 FILLER_25_30
*759 FILLER_25_37
*760 FILLER_25_45
*761 FILLER_25_51
*762 FILLER_25_55
*763 FILLER_25_64
*764 FILLER_25_92
*765 FILLER_26_108
*766 FILLER_26_116
*767 FILLER_26_120
*768 FILLER_26_131
*769 FILLER_26_139
*770 FILLER_26_141
*771 FILLER_26_165
*772 FILLER_26_171
*773 FILLER_26_192
*774 FILLER_26_23
*775 FILLER_26_27
*776 FILLER_26_36
*777 FILLER_26_55
*778 FILLER_26_61
*779 FILLER_26_65
*780 FILLER_26_77
*781 FILLER_26_83
*782 FILLER_26_85
*783 FILLER_26_89
*784 FILLER_26_97
*785 FILLER_27_111
*786 FILLER_27_133
*787 FILLER_27_141
*788 FILLER_27_15
*789 FILLER_27_150
*790 FILLER_27_156
*791 FILLER_27_160
*792 FILLER_27_169
*793 FILLER_27_173
*794 FILLER_27_179
*795 FILLER_27_19
*796 FILLER_27_190
*797 FILLER_27_23
*798 FILLER_27_3
*799 FILLER_27_47
*800 FILLER_27_55
*801 FILLER_27_77
*802 FILLER_27_85
*803 FILLER_27_90
*804 FILLER_27_99
*805 FILLER_28_105
*806 FILLER_28_112
*807 FILLER_28_125
*808 FILLER_28_13
*809 FILLER_28_134
*810 FILLER_28_141
*811 FILLER_28_146
*812 FILLER_28_152
*813 FILLER_28_156
*814 FILLER_28_163
*815 FILLER_28_174
*816 FILLER_28_192
*817 FILLER_28_24
*818 FILLER_28_29
*819 FILLER_28_3
*820 FILLER_28_38
*821 FILLER_28_45
*822 FILLER_28_52
*823 FILLER_28_59
*824 FILLER_28_66
*825 FILLER_28_78
*826 FILLER_28_9
*827 FILLER_29_105
*828 FILLER_29_111
*829 FILLER_29_116
*830 FILLER_29_123
*831 FILLER_29_130
*832 FILLER_29_136
*833 FILLER_29_140
*834 FILLER_29_15
*835 FILLER_29_151
*836 FILLER_29_159
*837 FILLER_29_164
*838 FILLER_29_189
*839 FILLER_29_195
*840 FILLER_29_24
*841 FILLER_29_3
*842 FILLER_29_52
*843 FILLER_29_60
*844 FILLER_29_71
*845 FILLER_29_83
*846 FILLER_29_87
*847 FILLER_29_94
*848 FILLER_2_105
*849 FILLER_2_117
*850 FILLER_2_131
*851 FILLER_2_139
*852 FILLER_2_141
*853 FILLER_2_151
*854 FILLER_2_155
*855 FILLER_2_176
*856 FILLER_2_187
*857 FILLER_2_195
*858 FILLER_2_23
*859 FILLER_2_27
*860 FILLER_2_29
*861 FILLER_2_41
*862 FILLER_2_53
*863 FILLER_2_59
*864 FILLER_2_67
*865 FILLER_2_78
*866 FILLER_30_106
*867 FILLER_30_113
*868 FILLER_30_124
*869 FILLER_30_131
*870 FILLER_30_139
*871 FILLER_30_141
*872 FILLER_30_154
*873 FILLER_30_163
*874 FILLER_30_177
*875 FILLER_30_191
*876 FILLER_30_195
*877 FILLER_30_23
*878 FILLER_30_27
*879 FILLER_30_34
*880 FILLER_30_41
*881 FILLER_30_49
*882 FILLER_30_71
*883 FILLER_30_80
*884 FILLER_30_95
*885 FILLER_31_108
*886 FILLER_31_113
*887 FILLER_31_13
*888 FILLER_31_135
*889 FILLER_31_159
*890 FILLER_31_167
*891 FILLER_31_169
*892 FILLER_31_192
*893 FILLER_31_27
*894 FILLER_31_33
*895 FILLER_31_41
*896 FILLER_31_48
*897 FILLER_31_64
*898 FILLER_31_71
*899 FILLER_31_99
*900 FILLER_32_106
*901 FILLER_32_123
*902 FILLER_32_13
*903 FILLER_32_131
*904 FILLER_32_136
*905 FILLER_32_141
*906 FILLER_32_145
*907 FILLER_32_150
*908 FILLER_32_164
*909 FILLER_32_179
*910 FILLER_32_190
*911 FILLER_32_24
*912 FILLER_32_29
*913 FILLER_32_37
*914 FILLER_32_48
*915 FILLER_32_57
*916 FILLER_32_69
*917 FILLER_32_77
*918 FILLER_32_83
*919 FILLER_32_95
*920 FILLER_3_103
*921 FILLER_3_111
*922 FILLER_3_113
*923 FILLER_3_121
*924 FILLER_3_13
*925 FILLER_3_144
*926 FILLER_3_148
*927 FILLER_3_156
*928 FILLER_3_189
*929 FILLER_3_195
*930 FILLER_3_24
*931 FILLER_3_3
*932 FILLER_3_52
*933 FILLER_3_57
*934 FILLER_3_65
*935 FILLER_3_7
*936 FILLER_3_70
*937 FILLER_3_79
*938 FILLER_3_91
*939 FILLER_4_108
*940 FILLER_4_120
*941 FILLER_4_127
*942 FILLER_4_136
*943 FILLER_4_141
*944 FILLER_4_146
*945 FILLER_4_157
*946 FILLER_4_16
*947 FILLER_4_169
*948 FILLER_4_173
*949 FILLER_4_181
*950 FILLER_4_188
*951 FILLER_4_29
*952 FILLER_4_3
*953 FILLER_4_41
*954 FILLER_4_46
*955 FILLER_4_54
*956 FILLER_4_64
*957 FILLER_4_73
*958 FILLER_4_80
*959 FILLER_4_85
*960 FILLER_4_93
*961 FILLER_5_107
*962 FILLER_5_11
*963 FILLER_5_111
*964 FILLER_5_116
*965 FILLER_5_127
*966 FILLER_5_134
*967 FILLER_5_146
*968 FILLER_5_153
*969 FILLER_5_165
*970 FILLER_5_169
*971 FILLER_5_180
*972 FILLER_5_189
*973 FILLER_5_195
*974 FILLER_5_23
*975 FILLER_5_28
*976 FILLER_5_3
*977 FILLER_5_39
*978 FILLER_5_51
*979 FILLER_5_55
*980 FILLER_5_57
*981 FILLER_5_66
*982 FILLER_5_74
*983 FILLER_5_83
*984 FILLER_6_103
*985 FILLER_6_109
*986 FILLER_6_121
*987 FILLER_6_129
*988 FILLER_6_137
*989 FILLER_6_141
*990 FILLER_6_153
*991 FILLER_6_162
*992 FILLER_6_170
*993 FILLER_6_192
*994 FILLER_6_24
*995 FILLER_6_29
*996 FILLER_6_3
*997 FILLER_6_35
*998 FILLER_6_48
*999 FILLER_6_56
*1000 FILLER_6_79
*1001 FILLER_6_83
*1002 FILLER_6_85
*1003 FILLER_6_95
*1004 FILLER_7_100
*1005 FILLER_7_133
*1006 FILLER_7_159
*1007 FILLER_7_167
*1008 FILLER_7_174
*1009 FILLER_7_181
*1010 FILLER_7_193
*1011 FILLER_7_21
*1012 FILLER_7_29
*1013 FILLER_7_3
*1014 FILLER_7_37
*1015 FILLER_7_48
*1016 FILLER_7_60
*1017 FILLER_7_68
*1018 FILLER_7_76
*1019 FILLER_7_88
*1020 FILLER_7_9
*1021 FILLER_8_107
*1022 FILLER_8_119
*1023 FILLER_8_130
*1024 FILLER_8_138
*1025 FILLER_8_141
*1026 FILLER_8_15
*1027 FILLER_8_152
*1028 FILLER_8_165
*1029 FILLER_8_176
*1030 FILLER_8_183
*1031 FILLER_8_195
*1032 FILLER_8_27
*1033 FILLER_8_3
*1034 FILLER_8_49
*1035 FILLER_8_61
*1036 FILLER_8_67
*1037 FILLER_8_75
*1038 FILLER_8_83
*1039 FILLER_8_85
*1040 FILLER_8_95
*1041 FILLER_9_106
*1042 FILLER_9_11
*1043 FILLER_9_113
*1044 FILLER_9_125
*1045 FILLER_9_132
*1046 FILLER_9_142
*1047 FILLER_9_151
*1048 FILLER_9_158
*1049 FILLER_9_166
*1050 FILLER_9_169
*1051 FILLER_9_19
*1052 FILLER_9_192
*1053 FILLER_9_26
*1054 FILLER_9_3
*1055 FILLER_9_38
*1056 FILLER_9_50
*1057 FILLER_9_77
*1058 FILLER_9_88
*1059 FILLER_9_94
*1060 FILLER_9_99
*1061 PHY_0
*1062 PHY_1
*1063 PHY_10
*1064 PHY_11
*1065 PHY_12
*1066 PHY_13
*1067 PHY_14
*1068 PHY_15
*1069 PHY_16
*1070 PHY_17
*1071 PHY_18
*1072 PHY_19
*1073 PHY_2
*1074 PHY_20
*1075 PHY_21
*1076 PHY_22
*1077 PHY_23
*1078 PHY_24
*1079 PHY_25
*1080 PHY_26
*1081 PHY_27
*1082 PHY_28
*1083 PHY_29
*1084 PHY_3
*1085 PHY_30
*1086 PHY_31
*1087 PHY_32
*1088 PHY_33
*1089 PHY_34
*1090 PHY_35
*1091 PHY_36
*1092 PHY_37
*1093 PHY_38
*1094 PHY_39
*1095 PHY_4
*1096 PHY_40
*1097 PHY_41
*1098 PHY_42
*1099 PHY_43
*1100 PHY_44
*1101 PHY_45
*1102 PHY_46
*1103 PHY_47
*1104 PHY_48
*1105 PHY_49
*1106 PHY_5
*1107 PHY_50
*1108 PHY_51
*1109 PHY_52
*1110 PHY_53
*1111 PHY_54
*1112 PHY_55
*1113 PHY_56
*1114 PHY_57
*1115 PHY_58
*1116 PHY_59
*1117 PHY_6
*1118 PHY_60
*1119 PHY_61
*1120 PHY_62
*1121 PHY_63
*1122 PHY_64
*1123 PHY_65
*1124 PHY_7
*1125 PHY_8
*1126 PHY_9
*1127 TAP_100
*1128 TAP_101
*1129 TAP_102
*1130 TAP_103
*1131 TAP_104
*1132 TAP_105
*1133 TAP_106
*1134 TAP_107
*1135 TAP_108
*1136 TAP_109
*1137 TAP_110
*1138 TAP_111
*1139 TAP_112
*1140 TAP_113
*1141 TAP_114
*1142 TAP_115
*1143 TAP_116
*1144 TAP_117
*1145 TAP_118
*1146 TAP_119
*1147 TAP_120
*1148 TAP_121
*1149 TAP_122
*1150 TAP_123
*1151 TAP_124
*1152 TAP_125
*1153 TAP_126
*1154 TAP_127
*1155 TAP_128
*1156 TAP_129
*1157 TAP_130
*1158 TAP_131
*1159 TAP_132
*1160 TAP_133
*1161 TAP_134
*1162 TAP_135
*1163 TAP_136
*1164 TAP_137
*1165 TAP_138
*1166 TAP_139
*1167 TAP_140
*1168 TAP_141
*1169 TAP_142
*1170 TAP_143
*1171 TAP_144
*1172 TAP_145
*1173 TAP_146
*1174 TAP_147
*1175 TAP_148
*1176 TAP_149
*1177 TAP_150
*1178 TAP_151
*1179 TAP_152
*1180 TAP_153
*1181 TAP_154
*1182 TAP_155
*1183 TAP_156
*1184 TAP_157
*1185 TAP_158
*1186 TAP_159
*1187 TAP_160
*1188 TAP_161
*1189 TAP_162
*1190 TAP_163
*1191 TAP_164
*1192 TAP_165
*1193 TAP_166
*1194 TAP_167
*1195 TAP_168
*1196 TAP_169
*1197 TAP_170
*1198 TAP_66
*1199 TAP_67
*1200 TAP_68
*1201 TAP_69
*1202 TAP_70
*1203 TAP_71
*1204 TAP_72
*1205 TAP_73
*1206 TAP_74
*1207 TAP_75
*1208 TAP_76
*1209 TAP_77
*1210 TAP_78
*1211 TAP_79
*1212 TAP_80
*1213 TAP_81
*1214 TAP_82
*1215 TAP_83
*1216 TAP_84
*1217 TAP_85
*1218 TAP_86
*1219 TAP_87
*1220 TAP_88
*1221 TAP_89
*1222 TAP_90
*1223 TAP_91
*1224 TAP_92
*1225 TAP_93
*1226 TAP_94
*1227 TAP_95
*1228 TAP_96
*1229 TAP_97
*1230 TAP_98
*1231 TAP_99
*1232 _222_
*1233 _223_
*1234 _224_
*1235 _225_
*1236 _226_
*1237 _227_
*1238 _228_
*1239 _229_
*1240 _230_
*1241 _231_
*1242 _232_
*1243 _233_
*1244 _234_
*1245 _235_
*1246 _236_
*1247 _237_
*1248 _238_
*1249 _239_
*1250 _240_
*1251 _241_
*1252 _242_
*1253 _243_
*1254 _244_
*1255 _245_
*1256 _246_
*1257 _247_
*1258 _248_
*1259 _249_
*1260 _250_
*1261 _251_
*1262 _252_
*1263 _253_
*1264 _254_
*1265 _255_
*1266 _256_
*1267 _257_
*1268 _258_
*1269 _259_
*1270 _260_
*1271 _261_
*1272 _262_
*1273 _263_
*1274 _264_
*1275 _265_
*1276 _266_
*1277 _267_
*1278 _268_
*1279 _269_
*1280 _270_
*1281 _271_
*1282 _272_
*1283 _273_
*1284 _274_
*1285 _275_
*1286 _276_
*1287 _277_
*1288 _278_
*1289 _279_
*1290 _280_
*1291 _281_
*1292 _282_
*1293 _283_
*1294 _284_
*1295 _285_
*1296 _286_
*1297 _287_
*1298 _288_
*1299 _289_
*1300 _290_
*1301 _291_
*1302 _292_
*1303 _293_
*1304 _294_
*1305 _295_
*1306 _296_
*1307 _297_
*1308 _298_
*1309 _299_
*1310 _300_
*1311 _301_
*1312 _302_
*1313 _303_
*1314 _304_
*1315 _305_
*1316 _306_
*1317 _307_
*1318 _308_
*1319 _309_
*1320 _310_
*1321 _311_
*1322 _312_
*1323 _313_
*1324 _314_
*1325 _315_
*1326 _316_
*1327 _317_
*1328 _318_
*1329 _319_
*1330 _320_
*1331 _321_
*1332 _322_
*1333 _323_
*1334 _324_
*1335 _325_
*1336 _326_
*1337 _327_
*1338 _328_
*1339 _329_
*1340 _330_
*1341 _331_
*1342 _332_
*1343 _333_
*1344 _334_
*1345 _335_
*1346 _336_
*1347 _337_
*1348 _338_
*1349 _339_
*1350 _340_
*1351 _341_
*1352 _342_
*1353 _343_
*1354 _344_
*1355 _345_
*1356 _346_
*1357 _347_
*1358 _348_
*1359 _349_
*1360 _350_
*1361 _351_
*1362 _352_
*1363 _353_
*1364 _354_
*1365 _355_
*1366 _356_
*1367 _357_
*1368 _358_
*1369 _359_
*1370 _360_
*1371 _361_
*1372 _362_
*1373 _363_
*1374 _364_
*1375 _365_
*1376 _366_
*1377 _367_
*1378 _368_
*1379 _369_
*1380 _370_
*1381 _371_
*1382 _372_
*1383 _373_
*1384 _374_
*1385 _375_
*1386 _376_
*1387 _377_
*1388 _378_
*1389 _379_
*1390 _380_
*1391 _381_
*1392 _382_
*1393 _383_
*1394 _384_
*1395 _385_
*1396 _386_
*1397 _387_
*1398 _388_
*1399 _389_
*1400 _390_
*1401 _391_
*1402 _392_
*1403 _393_
*1404 _394_
*1405 _395_
*1406 _396_
*1407 _397_
*1408 _398_
*1409 _399_
*1410 _400_
*1411 _401_
*1412 _402_
*1413 _403_
*1414 _404_
*1415 _405_
*1416 _406_
*1417 _407_
*1418 _408_
*1419 _409_
*1420 _410_
*1421 _411_
*1422 _412_
*1423 _413_
*1424 _414_
*1425 _415_
*1426 _416_
*1427 _417_
*1428 _418_
*1429 _419_
*1430 _420_
*1431 _421_
*1432 _422_
*1433 _423_
*1434 _424_
*1435 _425_
*1436 _426_
*1437 _427_
*1438 _428_
*1439 _429_
*1440 _430_
*1441 _431_
*1442 _432_
*1443 _433_
*1444 _434_
*1445 _435_
*1446 _436_
*1447 _437_
*1448 _438_
*1449 _439_
*1450 _440_
*1451 _441_
*1452 _442_
*1453 _443_
*1454 _444_
*1455 _445_
*1456 _446_
*1457 _447_
*1458 _448_
*1459 _449_
*1460 _450_
*1461 _451_
*1462 _452_
*1463 _453_
*1464 _454_
*1465 _455_
*1466 _456_
*1467 _457_
*1468 _458_
*1469 _459_
*1470 _460_
*1471 _461_
*1472 _462_
*1473 _463_
*1474 _464_
*1475 _465_
*1476 _466_
*1477 _467_
*1478 _468_
*1479 _469_
*1480 _470_
*1481 _471_
*1482 _472_
*1483 _473_
*1484 _474_
*1485 _475_
*1486 _476_
*1487 _477_
*1488 _478_
*1489 _479_
*1490 _480_
*1491 _481_
*1492 _482_
*1493 _483_
*1494 _484_
*1495 _485_
*1496 _486_
*1497 _487_
*1498 _488_
*1499 _489_
*1500 _490_
*1501 _491_
*1502 _492_
*1503 _493_
*1504 _494_
*1505 _495_
*1506 _496_
*1507 _497_
*1508 _498_
*1509 _499_
*1510 _500_
*1511 _501_
*1512 _502_
*1513 _503_
*1514 _504_
*1515 _505_
*1516 _506_
*1517 _507_
*1518 _508_
*1519 _509_
*1520 _510_
*1521 _511_
*1522 _512_
*1523 _513_
*1524 _514_
*1525 _515_
*1526 _516_
*1527 _517_
*1528 _518_
*1529 _519_
*1530 _520_
*1531 _521_
*1532 _522_
*1533 _523_
*1534 _524_
*1535 _525_
*1536 _526_
*1537 _527_
*1538 _528_
*1539 _529_
*1540 _530_
*1541 _531_
*1542 _532_
*1543 _533_
*1544 _534_
*1545 _535_
*1546 _536_
*1547 _537_
*1548 _538_
*1549 clkbuf_0_clk
*1550 clkbuf_1_0_0_clk
*1551 clkbuf_1_1_0_clk
*1552 clkbuf_2_0_0_clk
*1553 clkbuf_2_1_0_clk
*1554 clkbuf_2_2_0_clk
*1555 clkbuf_2_3_0_clk
*1556 clkbuf_3_0_0_clk
*1557 clkbuf_3_1_0_clk
*1558 clkbuf_3_2_0_clk
*1559 clkbuf_3_3_0_clk
*1560 clkbuf_3_4_0_clk
*1561 clkbuf_3_5_0_clk
*1562 clkbuf_3_6_0_clk
*1563 clkbuf_3_7_0_clk
*1564 input1
*1565 input10
*1566 input11
*1567 input12
*1568 input13
*1569 input14
*1570 input15
*1571 input16
*1572 input17
*1573 input18
*1574 input19
*1575 input2
*1576 input20
*1577 input21
*1578 input22
*1579 input23
*1580 input24
*1581 input25
*1582 input26
*1583 input27
*1584 input28
*1585 input29
*1586 input3
*1587 input30
*1588 input31
*1589 input32
*1590 input33
*1591 input34
*1592 input4
*1593 input5
*1594 input6
*1595 input7
*1596 input8
*1597 input9
*1598 output35

*PORTS
clk I
p O
rst I
x[0] I
x[10] I
x[11] I
x[12] I
x[13] I
x[14] I
x[15] I
x[16] I
x[17] I
x[18] I
x[19] I
x[1] I
x[20] I
x[21] I
x[22] I
x[23] I
x[24] I
x[25] I
x[26] I
x[27] I
x[28] I
x[29] I
x[2] I
x[30] I
x[31] I
x[3] I
x[4] I
x[5] I
x[6] I
x[7] I
x[8] I
x[9] I
y I

*D_NET *3 0.00653423
*CONN
*P clk I
*I *1549:A I *D sky130_fd_sc_hd__clkbuf_16
*CAP
1 clk 0.00229611
2 *1549:A 0.00229611
3 *1549:A *1243:B 0.000350478
4 *1549:A *1410:A 0.000114594
5 *1549:A *1487:RESET_B 0.000165521
6 *1549:A *1535:CLK 4.24488e-05
7 *1549:A *1535:D 6.1189e-05
8 *1549:A *1551:A 0.00018507
9 *1549:A *144:11 0.000603431
10 *1549:A *225:29 0.000354476
11 *1549:A *383:17 6.48033e-05
*RES
1 clk *1549:A 45.8324 
*END

*D_NET *4 0.000675295
*CONN
*P p O
*I *1598:X O *D sky130_fd_sc_hd__buf_2
*CAP
1 p 0.000296349
2 *1598:X 0.000296349
3 p *373:10 2.28235e-05
4 p *380:12 5.97738e-05
*RES
1 *1598:X p 19.1551 
*END

*D_NET *5 0.000864016
*CONN
*P rst I
*I *1564:A I *D sky130_fd_sc_hd__clkbuf_2
*CAP
1 rst 0.000432008
2 *1564:A 0.000432008
*RES
1 rst *1564:A 24.8711 
*END

*D_NET *6 0.0014539
*CONN
*P x[0] I
*I *1575:A I *D sky130_fd_sc_hd__dlymetal6s2s_1
*CAP
1 x[0] 0.000726949
2 *1575:A 0.000726949
3 *1575:A *1568:A 0
*RES
1 x[0] *1575:A 33.3239 
*END

*D_NET *7 0.000975761
*CONN
*P x[10] I
*I *1586:A I *D sky130_fd_sc_hd__dlymetal6s2s_1
*CAP
1 x[10] 0.000487881
2 *1586:A 0.000487881
3 *1586:A *1592:A 0
4 *1586:A *37:13 0
*RES
1 x[10] *1586:A 27.2326 
*END

*D_NET *8 0.002157
*CONN
*P x[11] I
*I *1592:A I *D sky130_fd_sc_hd__dlymetal6s2s_1
*CAP
1 x[11] 0.000885522
2 *1592:A 0.000885522
3 *1592:A *1593:A 0.000171288
4 *1592:A *398:7 0.000171288
5 *1592:A *399:7 4.33819e-05
6 *1586:A *1592:A 0
*RES
1 x[11] *1592:A 37.7607 
*END

*D_NET *9 0.00128942
*CONN
*P x[12] I
*I *1593:A I *D sky130_fd_sc_hd__clkbuf_2
*CAP
1 x[12] 0.000524431
2 *1593:A 0.000524431
3 *1593:A *1594:A 0
4 *1593:A *399:7 6.92705e-05
5 *1592:A *1593:A 0.000171288
*RES
1 x[12] *1593:A 28.7477 
*END

*D_NET *10 0.00195258
*CONN
*P x[13] I
*I *1594:A I *D sky130_fd_sc_hd__dlymetal6s2s_1
*CAP
1 x[13] 0.000920475
2 *1594:A 0.000920475
3 *1594:A *1279:A 6.50727e-05
4 *1594:A *1279:B 1.07248e-05
5 *1594:A *1280:B1 3.58321e-05
6 *1594:A *398:8 0
7 *1594:A *399:10 0
8 *1593:A *1594:A 0
*RES
1 x[13] *1594:A 37.6101 
*END

*D_NET *11 0.00254178
*CONN
*P x[14] I
*I *1595:A I *D sky130_fd_sc_hd__dlymetal6s2s_1
*CAP
1 x[14] 0.000961521
2 *1595:A 0.000961521
3 *1595:A *1339:A1 4.07355e-05
4 *1595:A *1339:A2 0.000151558
5 *1595:A *1339:B1 0.000164829
6 *1595:A *1596:A 0.000261613
*RES
1 x[14] *1595:A 42.3973 
*END

*D_NET *12 0.00269323
*CONN
*P x[15] I
*I *1596:A I *D sky130_fd_sc_hd__clkbuf_1
*CAP
1 x[15] 0.00112096
2 *1596:A 0.00112096
3 *1596:A *1337:B 2.65831e-05
4 *1596:A *1339:A2 0.000120199
5 *1596:A *1523:RESET_B 0
6 *1596:A *1597:A 0
7 *1596:A *203:7 2.84661e-05
8 *1596:A *398:8 0
9 *1596:A *400:10 1.44467e-05
10 *1595:A *1596:A 0.000261613
*RES
1 x[15] *1596:A 44.7047 
*END

*D_NET *13 0.00393263
*CONN
*P x[16] I
*I *1597:A I *D sky130_fd_sc_hd__clkbuf_1
*CAP
1 x[16] 0.00135446
2 *1597:A 0.00135446
3 *1597:A *1339:A2 0.000482238
4 *1597:A *1341:A 0.000219249
5 *1597:A *1341:B 1.41181e-05
6 *1597:A *1523:D 1.81949e-05
7 *1597:A *1566:A 0.000171273
8 *1597:A *14:18 0.000175003
9 *1597:A *371:9 0.000143633
10 *1596:A *1597:A 0
*RES
1 x[16] *1597:A 49.5265 
*END

*D_NET *14 0.00337305
*CONN
*P x[17] I
*I *1565:A I *D sky130_fd_sc_hd__clkbuf_1
*CAP
1 x[17] 0.000875904
2 *1565:A 0
3 *14:18 0.000875904
4 *14:18 *1337:B 0.000201734
5 *14:18 *1339:A1 0.000451124
6 *14:18 *1339:B1 6.26118e-05
7 *14:18 *1344:A1 6.27718e-05
8 *14:18 *1523:CLK 9.31394e-05
9 *14:18 *1566:A 0
10 *14:18 *305:8 1.32509e-05
11 *14:18 *371:9 0.000217937
12 *14:18 *402:8 0.000191082
13 *14:18 *403:8 0.000152586
14 *1597:A *14:18 0.000175003
*RES
1 x[17] *14:18 44.1394 
2 *14:18 *1565:A 9.24915 
*END

*D_NET *15 0.00257339
*CONN
*P x[18] I
*I *1566:A I *D sky130_fd_sc_hd__clkbuf_1
*CAP
1 x[18] 0.0010414
2 *1566:A 0.0010414
3 *1566:A *1339:A1 0
4 *1566:A *1567:A 0
5 *1566:A *371:9 5.8256e-05
6 *1566:A *401:8 0.000159938
7 *1566:A *402:8 0.000101118
8 *1597:A *1566:A 0.000171273
9 *14:18 *1566:A 0
*RES
1 x[18] *1566:A 42.3442 
*END

*D_NET *16 0.00316426
*CONN
*P x[19] I
*I *1567:A I *D sky130_fd_sc_hd__clkbuf_1
*CAP
1 x[19] 0.00119854
2 *1567:A 0.00119854
3 *1567:A *1347:B 0.000406923
4 *1567:A *1525:D 2.47163e-05
5 *1567:A *1526:D 0
6 *1567:A *18:10 0
7 *1567:A *206:12 0.000333129
8 *1567:A *372:8 2.41274e-06
9 *1567:A *401:8 0
10 *1566:A *1567:A 0
*RES
1 x[19] *1567:A 48.1252 
*END

*D_NET *17 0.00147022
*CONN
*P x[1] I
*I *1568:A I *D sky130_fd_sc_hd__dlymetal6s2s_1
*CAP
1 x[1] 0.00073511
2 *1568:A 0.00073511
3 *1568:A *28:11 0
4 *1575:A *1568:A 0
*RES
1 x[1] *1568:A 33.7335 
*END

*D_NET *18 0.00478845
*CONN